LTspice 24.0.11 for Windows
Circuit: * TL084 OPERATIONAL AMPLIFIER "MACROMODEL" SUBCIRCUIT
Start Time: Sat Apr 27 23:06:09 2024
Fatal Error: No analysis request found.
